**$ENCRYPTED_LIB
**$INTERFACE
*$
* TPS54200
*****************************************************************************
* (C) Copyright 2016 Texas Instruments Incorporated. All rights reserved.                                            
*****************************************************************************
** This model is designed as an aid for customers of Texas Instruments.
** TI and its licensors and suppliers make no warranties, either expressed
** or implied, with respect to this model, including the warranties of 
** merchantability or fitness for a particular purpose.  The model is
** provided solely on an "as is" basis.  The entire risk as to its quality
** and performance is with the customer
*****************************************************************************
*
* This model is subject to change without notice. Texas Instruments
* Incorporated is not responsible for updating this model.
*
*****************************************************************************
*
** Released by: WEBENCH Design Center, Texas Instruments Inc.
* Part: TPS54200
* Date: 28OCT2016
* Model Type:  TRANSIENT 
* Simulator: PSPICE
* Simulator Version: 16.2.0.p001
* EVM Order Number: NA
* EVM Users Guide: NA
* Datasheet: NA
*
* Model Version: Final 1.00
*
*****************************************************************************
*
* Updates:
*
* Final 1.00
* Release to Web.
*
*****************************************************************************
*
* Model Usage Notes:
*
* 1. The following features have been modeled
*      a. Analog dimming mode,PWM dimming mode.
*      b. higher side current limit, lower side sourcing current limit, 
*          lower side reverse current limit.
*      c. LED open protection, SENSE short protection, SENSE open protection, 
*         Over voltage protection.
* 2. Temperature effects are not modeled. 
*
*****************************************************************************
.SUBCKT TPS54200_TRANS BOOT FB GND PWM SW VIN  
$CDNENCSTART
eee8c5c7a2bc4b01f045f303678664e7916da0bae22e8cb0bba041dd67c69ce448ea70148a9ac1670c8926c1ac5057c8ccfcd77bf87ca9dcb17133141c75a3e0
269bbabc6a15f2e4706b807646b8037108ad970b39079f36360a3802d424aff4e43abeccfc7bbee1ed857e222a29377b47c987c9e6e3926f41c29b0f8d76a09b
08caa8e5bf0fb1241c7c5f34a3a7dfd42dbdd0e27b017184e1e4d33f42419d39f69e2ff4586e240e726d9a7f6b37359c8318958aa75d4556dd0a70f33e2447ea
4e2689494256295447158635b18b66592daea10cff7a5d91d945b5b24ce6d5a1559e8b7e85c7881c73b13e7c349cd99e570bd4876f376c9b600398ff79f5ab71
4b6085f2012636675a0aa31c52cddba976617f42cd5d956b3da1e948a9b702a698a090f2b116bb9357d2755d915add1954c0dd1f2debfc8c39a743487a5a3f9e
b9c39ca899f5a83ca665d0fac02ce03e9b91b56ba806134af26fe0195f7fcca33578a66cfaf188d2c9ba0bd9d602ad00fe821ef072e47d3780f60ec476d3781b
11ecfcef0b18d94da665d0fac02ce03e9b91b56ba806134a3f70afd14a12f05156e4f154761ededfb94779a861f318d7769abcf890ded585caf735dae450f6c6
456676176791578bb032015482838020ed857e222a29377b47c987c9e6e3926f9bdd75024e66c2217fc450ff3e877bf822a6af71bb3a3a229abb40a2fb419998
bbf0a766f49a242c2637e9cac2aa5cea2cecad1ebf804c4bf467148f06ca8e43392a7df6f73d45613f3aeb74ecaf0640b320cd167d17e04ec38de58dcc517e31
e030c0ba5975ea97706b807646b8037119de2b893537bbe7230b05b7f1ba399d8245da791b581e7f343304a306b1a8ee345fb6565c285f0767567b4935229b3a
b591a959ba4f6c7b706b807646b80371165c294e6d1686583204e3564afcf1950e1d185d476eeaec644126c9831a96bd3da1e948a9b702a67ba43558043aebbb
857c204c29c46f5c261d43fda4e58039e46d5b098f461291cee29c79aa55929a6b1f8e4a2409c776676b22e00b8454b7a1943618832707cf8c7410d59e9a8cf6
85d952686133a487706b807646b8037119de2b893537bbe7eb3dad2578519c63af8e9c6d112bd0f2e118431d96958c6b68cef939dc1d8c1881a03470b1436b51
84dd287553cad0ff706b807646b80371cee29c79aa55929a729f3621a87fd2bdaad0cae5ebf3019a3da1e948a9b702a698a090f2b116bb930fe348a75d336ab0
08caa8e5bf0fb124a84ecbc7159c51ad2dbdd0e27b0171843452428dd654617bb44b2ed33f4fac0aeb1d1fda5c0cacfdbf71c1800bcdb651892e8bb282280cdd
8318958aa75d4556dad4b7980b83d60c031b039bccf116235ef9a7be156c5da8ce373af246fdf705ab5fe79448277d6d76ccc40dc51207fb056d118e53144ddc
bbf0a766f49a242c2637e9cac2aa5ceafd49a287c76beca9cf3db11be0503885fe821ef072e47d377902063cdcac83bf548220604fce4ca248954aea29763889
f4260506181d0203706b807646b80371b405a559dd1430591d5458c14e49f7a8924c062e0c3d24eaef0360d7eee406cd949e0297405d1edc8c7410d59e9a8cf6
08caa8e5bf0fb1246af56f2fcb564d812dbdd0e27b01718437cc5760057abfe92a019878e57cc8e8523dc1999042a51775963efd3ee34e160ff63032dc4e41c4
bfd81d659a09e4b3d24b51ea77d68888031b039bccf116235ef9a7be156c5da8ce373af246fdf705ab5fe79448277d6d76ccc40dc51207fb056d118e53144ddc
4b6085f2012636675a0aa31c52cddba976617f42cd5d956b3da1e948a9b702a698a090f2b116bb9357d2755d915add1954c0dd1f2debfc8c39a743487a5a3f9e
6efb503c5c6a92ce9f50c449b546348c2dbdd0e27b01718471c08e1ba0f049fe66eaeb9fc4cc8ae1152c84b551bf63876bee2eb614fec01b2c3e1e666d6cce83
e913234bec141344e71f71e1875841713da1e948a9b702a698a090f2b116bb9357d2755d915add1954c0dd1f2debfc8cd5bb8a71a9310f3e83de41f526276938
08caa8e5bf0fb12426b975abe1d7cf1f9ebb7812456ae73f9b21c8079a209f98c3e46b14b6ad8a65d2bbd7e847d638e1e776e9b255bda08c8cc849879194c8ab
021166ac3753b7b8ed857e222a29377b47c987c9e6e3926f9bdd75024e66c2217fc450ff3e877bf822a6af71bb3a3a223de27a99cb6bc70b10b43af8dccadd49
4b6085f2012636675a0aa31c52cddba976617f42cd5d956b3da1e948a9b702a698a090f2b116bb9357d2755d915add1954c0dd1f2debfc8c39a743487a5a3f9e
6efb503c5c6a92ce8e95ccf4dc44f0684178084b0c3a0e96198352edab76f82d8492e52ca9907137d6606643efc900533da1e948a9b702a67ba43558043aebbb
32cd76a2a36328a9b598a13eab1a969ba274c5e9b625ef6905947b1c7c7e97cd64a100c89c449d0d6d35d8485846d699031b039bccf1162348954ede88458deb
08caa8e5bf0fb1247efa854bb4512d8d16809bc7b914f2cfef1742f633af65b3281737099d023c1290ebeb204a266d0440724b552e1f9cc2dd0a70f33e2447ea
cdde7c4607f9c610ed857e222a29377b47c987c9e6e3926f9bdd75024e66c2217fc450ff3e877bf822a6af71bb3a3a223de27a99cb6bc70b10b43af8dccadd49
f9c3756b1cccef3f706b807646b80371cee29c79aa55929a968a1d0808ca2a3839859341766fc92c3da1e948a9b702a698a090f2b116bb930fe348a75d336ab0
08caa8e5bf0fb12408e79cbf8de54de32db9591b25cb352330f2dcfe18b0a3c387f0d797158baf345a0b6b11f5d5f85310e14540e1333cbfd81168f118dbd0a1
8318958aa75d4556dad4b7980b83d60c031b039bccf116235ef9a7be156c5da8ce373af246fdf705ab5fe79448277d6d76ccc40dc51207fb056d118e53144ddc
bbf0a766f49a242c2637e9cac2aa5ceafd49a287c76beca9cf3db11be0503885fe821ef072e47d377902063cdcac83bf548220604fce4ca248954aea29763889
08caa8e5bf0fb124cdf66d24c4e15e442dbdd0e27b0171841276c247f720f92e54220ea9f56525d2cee29c79aa55929a2987834cd1b6e4e0e4e72beed32b1f99
5911b2e9db27761795d7fcca0b5012cc2daea10cff7a5d91d945b5b24ce6d5a1559e8b7e85c7881c73b13e7c349cd99e570bd4876f376c9b600398ff79f5ab71
bbf0a766f49a242c2637e9cac2aa5cea2cecad1ebf804c4bf467148f06ca8e43392a7df6f73d45613f3aeb74ecaf0640b320cd167d17e04ec38de58dcc517e31
3563d5e669f7630c706b807646b80371165c294e6d1686581276c247f720f92e1ce5d1ab0e00ad1557e2c5aa80851370392a7df6f73d45613d527ac2613d630f
6f3362d775a5cfb3706b807646b80371cee29c79aa55929a7b844975ac65ef89595945af5767b8052da7a4c06b60bbf32daea10cff7a5d917a6b041da60660cd
08caa8e5bf0fb124525f4881cdcee43c2dbdd0e27b017184bf4d2259f7745f90f69e2ff4586e240ecee29c79aa55929a0363106feb15d65ee4e72beed32b1f99
5911b2e9db27761795d7fcca0b5012cc2daea10cff7a5d91d945b5b24ce6d5a1559e8b7e85c7881c73b13e7c349cd99e570bd4876f376c9b600398ff79f5ab71
bbf0a766f49a242c2637e9cac2aa5ceafd49a287c76beca9cf3db11be0503885fe821ef072e47d377902063cdcac83bf548220604fce4ca248954aea29763889
08caa8e5bf0fb124dca29065f7b4a6846b7bd5f9ab95e7d720ab165107b6ee710a76a931e4cda925baf0a8613c5f19fa558a0c64bb8bfbbff3b521790b328503
60368fcd63107d6c8dcea2cdd2d3d5cc571415143e3e61683da1e948a9b702a698a090f2b116bb9357d2755d915add1954c0dd1f2debfc8c39a743487a5a3f9e
cdaa385411811e27bfd81d659a09e4b32637e9cac2aa5cea2cecad1ebf804c4bf467148f06ca8e43392a7df6f73d45613f3aeb74ecaf06401f9d52a72bcc2648
856a6fe819c1e6b7706b807646b80371cee29c79aa55929af0e30bd9c35aee0c855c41250372e37c343304a306b1a8ee345fb6565c285f0767567b4935229b3a
08caa8e5bf0fb12409c4739f84a8c1c02dbdd0e27b017184d27679fd587a8e4e80452f60134713ef09135974649477c26b89a167893a2caf69988c9573b40eba
ca6439e878da1b9ef60ecfe3dff4fab23ec67d4c73bca363b6508643445d4fefc87cc0c97ea9f4a212e40fe3c7cdff735d45da6ecf8cdc388bfc7637a766eca9
cdaa385411811e27bfd81d659a09e4b32637e9cac2aa5ceafd49a287c76beca9cf3db11be0503885fe821ef072e47d377902063cdcac83bfca4d11d81786da33
e0af8266dd116214706b807646b8037128112ec0a349651d29e4aaf1949d055b98eb027f3369945c2daea10cff7a5d91d945b5b24ce6d5a10870482c96ec414d
11168fc815361255f6a2b547dc976ba014504bde661c4b94958eb47f6b1fe66275f06249fa3bf6c4a8cbe30c352d0d8d8c821bd0f1f2ea03b6b4f3bf9a2bfd5d
fd80f3b49cb1eb4ba286ab8191b330075911b2e9db277617a5257eba54077ab5021166ac3753b7b831bbfa71d5efb6fe825b843a3aa9ddcd8c7410d59e9a8cf6
9def05ac1ab3c9af239bdbe658d21d0038a742705cd2c15c8f3d9aaa25a8e998b05bac5620e56d99d9f146da1c0ec38a0a31693e5ff2fe66c42a7cf137b49b70
60a188d940e604c16594e2ecfdcb7f14343304a306b1a8ee345fb6565c285f07526e51cc856765cf1e6f66cd8e436b7a673492544bab6ba98e45bc342d97b276
bbf0a766f49a242c2637e9cac2aa5cea2cecad1ebf804c4bf467148f06ca8e43392a7df6f73d45613f3aeb74ecaf0640b320cd167d17e04ec38de58dcc517e31
0d94bf28a32b91c2659075cdeed3d50b5f0f4c9debbffb186d878027ee5014bea2341f34dcfc4b62031b039bccf116235ef9a7be156c5da86c6c715472c72b7a
2c9e3340fe4eb1e1706b807646b8037120aa0cb85df46490d913f7b1b83b7513e4a2086528793b85c58f303f7234a5893ec67d4c73bca363ac8adbaea3b43a2c
4c7cefc1b58f5a37eddd4a0765e35c3e52f0efa950eeb1922c2fc35e48b617db307c1fb8350b799a343304a306b1a8ee345fb6565c285f0767567b4935229b3a
9def05ac1ab3c9afa665d0fac02ce03e38a742705cd2c15cfbc5e42801709b3c11c3ee2ce5a7df3ca7460ab94dd57cfaa32a9f5de4fdf71d6c22f8338c178f33
9783ae8e4821c68fa223a4da0518f3d6343304a306b1a8ee345fb6565c285f07526e51cc856765cf1e6f66cd8e436b7a673492544bab6ba98e45bc342d97b276
8767f397bff4c3a731bbfa71d5efb6fe3ab97347ad0a000b785b6a2c82513d94343304a306b1a8ee345fb6565c285f07526e51cc856765cf9982da7894f8265d
4c7cefc1b58f5a37659075cdeed3d50b5f0f4c9debbffb1845fd2a2e0f3da23662d7fc06aea0b62b3ec67d4c73bca363b6508643445d4fefa8d1b623de7a490f
e3e751dbd1290a03706b807646b803713fd90e0c051227db082393235ef9c11c8556b91d689f46722daea10cff7a5d91d945b5b24ce6d5a10870482c96ec414d
9def05ac1ab3c9afbc27f931268b406138a742705cd2c15cc885ffa1bcc78ed2e728ab893c856c9fa686215662f9c0541879843c10f8027a7da0f932b9b31f90
1c7432cde066cf95ba5ee84b4ef1eeaf60a188d940e604c11933952b4dcad44ca68ba69006c80e09f1b6bc29d103b9156d913effe3ea9117d7acbf21c6552dd3
9537da97597551c2706b807646b803710921717109d5829e54d05ba930f32c394f8181b227c1b6b52daea10cff7a5d91d945b5b24ce6d5a10870482c96ec414d
6ce5bab3fe0859f8706b807646b8037128112ec0a349651d68bce821ea5f2771f2b0acb378d528f83ec67d4c73bca363b6508643445d4fefa8d1b623de7a490f
163cc7a9e0c251f052f0efa950eeb1922690a68b2320342287b7f39354a26cd9658871d6f7d0d5a4b5ae9f89d3d72c699552fabf658bc7d90abf5237bb7ba98b
11168fc815361255bf230db17611f82f98fa72fc39461b596a25a12b949d8578e789f1ba2129dea5a630e1ee1e1f280c1236caab4d0e8bd96fa16daf5c861d66
5126fbdf604aee6a031b039bccf116235ef9a7be156c5da8ce373af246fdf705ab5fe79448277d6d76ccc40dc51207fb912c3730bf3a2f4aeb262d7b1b6e40e0
fd80f3b49cb1eb4ba286ab8191b330075911b2e9db277617a5257eba54077ab5021166ac3753b7b831bbfa71d5efb6fe825b843a3aa9ddcd8c7410d59e9a8cf6
7182c0588f8d3d78706b807646b8037182d4ca96211abbc4d741f9005cf8e3f5aad0cae5ebf3019a3da1e948a9b702a698a090f2b116bb930fe348a75d336ab0
234cc9e78293aa96706b807646b8037182d4ca96211abbc4721aa249264f2b4affd75a05186801fc2b458ebbd17fa459343304a306b1a8eea51579969182cf2e
9def05ac1ab3c9aff6a2b547dc976ba01f76dc77dd80dd6328112ec0a349651d967f6b3506a6db6a93f0978bcaae26c25e907deffd12c5fff9224a01a31d483a
b31205aa407e75cde847dda77d5f94433da1e948a9b702a698a090f2b116bb9357d2755d915add1954c0dd1f2debfc8cd5bb8a71a9310f3e83de41f526276938
4b6085f2012636675a0aa31c52cddba976617f42cd5d956b3da1e948a9b702a698a090f2b116bb9357d2755d915add1954c0dd1f2debfc8c39a743487a5a3f9e
d278ecff0727c49e706b807646b8037182d4ca96211abbc40b76d061e2a4845a2b2dea1a171341c3644126c9831a96bd3da1e948a9b702a67ba43558043aebbb
b9f32cb98d34d288706b807646b8037110db1083f046ae6920aa0cb85df464904c1f11fd6113573f644126c9831a96bd3da1e948a9b702a67ba43558043aebbb
46ec8892f0ffcb8b706b807646b8037182d4ca96211abbc4721aa249264f2b4ab2ca044ebb4cfbfc92779c6b44dc5b7816bf62a0243c819fb2f8a2183ba0cbbf
d2bbd7e847d638e1f9160e96a49a6a05392a7df6f73d45613f3aeb74ecaf0640b320cd167d17e04e79d1e914716968b5d99b3cdbe3d0228bff42fba8c1a7c8a7
cdaa385411811e27bfd81d659a09e4b32637e9cac2aa5cea2cecad1ebf804c4bf467148f06ca8e43392a7df6f73d45613f3aeb74ecaf06401f9d52a72bcc2648
c6b0b261013fc0ee706b807646b80371a252f5709141b6b004799ba1eb01861ded857e222a29377b47c987c9e6e3926f9bdd75024e66c2218cf1b1426626c63b
9def05ac1ab3c9afb585b96681e0ca9b1f76dc77dd80dd6328112ec0a349651dfebd465f54f55a1493f0978bcaae26c25e907deffd12c5fff9224a01a31d483a
b31205aa407e75cde847dda77d5f94433da1e948a9b702a698a090f2b116bb9357d2755d915add1954c0dd1f2debfc8cd5bb8a71a9310f3e83de41f526276938
4b6085f2012636675a0aa31c52cddba976617f42cd5d956b3da1e948a9b702a698a090f2b116bb9357d2755d915add1954c0dd1f2debfc8c39a743487a5a3f9e
11168fc815361255c12e63f53fc8b6c71f76dc77dd80dd63479cfee6063d8ad774d99c9f7cf81b65e9812f8f701515eccb7f1f449fca48e1fa60a60811304f3e
1c7432cde066cf95ba5ee84b4ef1eeaf60a188d940e604c11933952b4dcad44ca68ba69006c80e09f1b6bc29d103b9156d913effe3ea9117d7acbf21c6552dd3
9def05ac1ab3c9afbf230db17611f82f98fa72fc39461b599be77085c8c5e267986b38de8dcf7f05783753b605f2f0b26af9d5413214ba98c27a0fe47ba19b0a
4651b4c215cbe2b1c23cdff2c91ac4502daea10cff7a5d91d945b5b24ce6d5a1559e8b7e85c7881c73b13e7c349cd99e570bd4876f376c9b600398ff79f5ab71
8767f397bff4c3a731bbfa71d5efb6fe102372497787b35c343304a306b1a8ee345fb6565c285f07526e51cc856765cf1e6f66cd8e436b7a1a93fdf2a737a290
616bc13bd2cad66b706b807646b8037182d4ca96211abbc4f60795a8f82a31e6ed857e222a29377b47c987c9e6e3926f9bdd75024e66c2218cf1b1426626c63b
a2f717201e9c9a24759d44358812a29d52f0efa950eeb192fdf82fe39e495d6528112ec0a349651d566ebd54ae96e970dad4bb70f534f24ced8464c23f116d73
32cd76a2a36328a9803534688f7fd028dd996610d319e4ca481d97d0162ce9196d35d8485846d699031b039bccf116235ef9a7be156c5da86c6c715472c72b7a
11168fc815361255b585b96681e0ca9b98fa72fc39461b596a25a12b949d8578e789f1ba2129dea51ef6607802c952f3cc775bf1f789bf0c6fa16daf5c861d66
7cfa8cfa0ccef7e7031b039bccf116235ef9a7be156c5da8ce373af246fdf705ab5fe79448277d6d76ccc40dc51207fb912c3730bf3a2f4aeb262d7b1b6e40e0
fd80f3b49cb1eb4ba286ab8191b330075911b2e9db277617a5257eba54077ab5021166ac3753b7b831bbfa71d5efb6fe825b843a3aa9ddcd8c7410d59e9a8cf6
9def05ac1ab3c9afcd9f9b0fe66d8ad138a742705cd2c15ca198a540bbd5956d78369e7592f139af9844c230d3330e28a32a9f5de4fdf71d6c22f8338c178f33
9783ae8e4821c68fa223a4da0518f3d6343304a306b1a8ee345fb6565c285f07526e51cc856765cf1e6f66cd8e436b7a673492544bab6ba98e45bc342d97b276
8767f397bff4c3a731bbfa71d5efb6fe3ab97347ad0a000b785b6a2c82513d94343304a306b1a8ee345fb6565c285f07526e51cc856765cf9982da7894f8265d
9def05ac1ab3c9afc12e63f53fc8b6c738a742705cd2c15caed46daed6819fbc37a916c01abaac24176016bb77d289e21879843c10f8027a41421ec23bf52968
1c7432cde066cf95ba5ee84b4ef1eeaf60a188d940e604c11933952b4dcad44ca68ba69006c80e09f1b6bc29d103b9156d913effe3ea9117d7acbf21c6552dd3
55f704278dd54997cc0121b5e20e20764d8dedc8a85f068f4d888735ec16026fcebbaeba8aa1a443c8f7ca7248a165074cef91124ed18ab6f9f26f4a9b6cae7b
5817f551786825e138380075bb5248d8031b039bccf116235ef9a7be156c5da8ce373af246fdf705ab5fe79448277d6d76ccc40dc51207fb056d118e53144ddc
cdaa385411811e27bfd81d659a09e4b32637e9cac2aa5ceafd49a287c76beca9cf3db11be0503885fe821ef072e47d377902063cdcac83bfca4d11d81786da33
48f3f97bbe41eb329e1b1d5b0c469533f5280d48e6847cf5dd4946db2b9a636278b54ce720b1001e9799a8149c962cc7d5d1daa44d52e416d38aff4e12555a5d
b5bfdddad69db474bc27f931268b40617928a3c366d0fbf030a70229248301926b815d16edd519fc37f6d0376a8a7c033ec67d4c73bca363ac8adbaea3b43a2c
48f3f97bbe41eb32f9050b7c03df6d024459256570afbfb5a731bd80041481e366eaeb9fc4cc8ae1c7b12ee3f9c895cb0a6e30734ec886d1e3b1d9f125874c82
b0fefffb41bb4190e71f71e1875841713da1e948a9b702a698a090f2b116bb9357d2755d915add1954c0dd1f2debfc8cd5bb8a71a9310f3e83de41f526276938
2fbc62dc97daa403706b807646b80371b28130f59081ac7749a86f24ccbb92048c481e6d660b7528d24ca9aee83b8514031b039bccf1162348954ede88458deb
46263147ec5e7be0c12e63f53fc8b6c7c766fef30e290f8c6b815d16edd519fc855c41250372e37c343304a306b1a8ee345fb6565c285f0767567b4935229b3a
c81a5a5f1879db9bcd9f9b0fe66d8ad1880bf70e80284a91a4bed66ac571015f901574c011743588cdb13dbddb99ec6d9df85dc52bdd69a02028f3cadd029e0b
1c7432cde066cf95ba5ee84b4ef1eeaf60a188d940e604c11933952b4dcad44ca68ba69006c80e09f1b6bc29d103b9156d913effe3ea9117d7acbf21c6552dd3
b175667b0c0a9746706b807646b803712c34a682473dcf25ec08d84e6e58e76e644126c9831a96bd3da1e948a9b702a698a090f2b116bb930fe348a75d336ab0
55f704278dd54997eb878487763963834d8dedc8a85f068f4211335fdd616b6ddfa89b43e899ed8b3c6493f88150c3286baa4c351fc5e3ad6c22f8338c178f33
9783ae8e4821c68fa223a4da0518f3d6343304a306b1a8ee345fb6565c285f07526e51cc856765cf1e6f66cd8e436b7a673492544bab6ba98e45bc342d97b276
8767f397bff4c3a731bbfa71d5efb6fe102372497787b35c343304a306b1a8ee345fb6565c285f07526e51cc856765cf1e6f66cd8e436b7a1a93fdf2a737a290
48f3f97bbe41eb32c4a16839124f00c6c4e2c99e308912bbd059f0f8a4182cb70e356d065fc27a7c03e8afe35c4c18efd69eb3cb40cbc0074f54ac2e669f8e35
c44313a9235e5bb899c91e8fcd10b990ed857e222a29377b47c987c9e6e3926f9bdd75024e66c2217fc450ff3e877bf822a6af71bb3a3a229abb40a2fb419998
8a804c3b63de252e706b807646b803714358d834ac54360043ff7015970ab23b03e88d819b89a72acf3b08f3ab1fea5848e6493a321500e4e3a7267961bdf146
2be7354edeee5956a223a4da0518f3d6343304a306b1a8ee345fb6565c285f07526e51cc856765cf1e6f66cd8e436b7a673492544bab6ba98e45bc342d97b276
8767f397bff4c3a731bbfa71d5efb6fe825b843a3aa9ddcd2daea10cff7a5d91d945b5b24ce6d5a1559e8b7e85c7881c73b13e7c349cd99e95e1cf538e88c327
8f6bad1ea32cf61a908295b3613f26e64459256570afbfb53a2b82f0e80f2cd5bee67e787b5aeb176b574213c15e8d89f1920af497bcd9c4c7813d6516a5e8fe
1d5d681d00ffe73b8675a01b2db95be72daea10cff7a5d91d945b5b24ce6d5a1559e8b7e85c7881c73b13e7c349cd99e570bd4876f376c9b600398ff79f5ab71
184cc3b5f2158d11239bdbe658d21d00b999930301392a28cebbaeba8aa1a44374c912e1e8f7a5514f8bfb77fa42da9c3ec67d4c73bca363ac8adbaea3b43a2c
48f3f97bbe41eb32c12e63f53fc8b6c74ebd7255d0563b4b2c7223ed108b6fe17208a85e1aefd30a7a8022f5e381cfb9c0a399dd758a146a3afa7e6faec3708f
c7f202f243814cb4392a7df6f73d45613f3aeb74ecaf0640b320cd167d17e04e79d1e914716968b5d99b3cdbe3d0228b5d2e4e94785ab0576b04903b2b2667cc
1bacb53f9fefd502893dd6f8fd8f283acca7f1318b3be9f18675a01b2db95be72daea10cff7a5d91d945b5b24ce6d5a1559e8b7e85c7881c99b505a9958897b3
c81a5a5f1879db9b239bdbe658d21d0050a47f354eb7f114440634f1140730b8bc5b781353427f0cfd291221dec1aeb48dcea2cdd2d3d5ccd573267e41263c5c
dd06c2baef735cae2b1410deca799d73343304a306b1a8ee345fb6565c285f07526e51cc856765cf1e6f66cd8e436b7a673492544bab6ba98e45bc342d97b276
4b6085f2012636675a0aa31c52cddba976617f42cd5d956b3da1e948a9b702a698a090f2b116bb9357d2755d915add1954c0dd1f2debfc8c39a743487a5a3f9e
b5bfdddad69db474bf230db17611f82f50a47f354eb7f1144358d834ac54360027bc98d104a9ad39ed857e222a29377b47c987c9e6e3926f41c29b0f8d76a09b
c85306e9a7a9c5c920713747a5dc5cd85622f74291c930a6049c8eaa29cb60691a3a93d4fc767cd7b34991257d35ad0ded857e222a29377bc25dfa9bb73dbf19
48f3f97bbe41eb328fc75b848a8dd104d96f19b77fd52d7276720684ddca79b28492e52ca9907137dab36317ce43a8e4b598a13eab1a969b43f10d66d18edd96
11d25e9c3361ad8b392a7df6f73d45613f3aeb74ecaf0640b320cd167d17e04e79d1e914716968b5d99b3cdbe3d0228b5d2e4e94785ab0576b04903b2b2667cc
83bbb633936990876383ddeb8524a24158f74012fb627595b5f1c17ee7956303392a7df6f73d45613f3aeb74ecaf0640b320cd167d17e04ec38de58dcc517e31
48f3f97bbe41eb32b585b96681e0ca9b2ccdb6a6e90d48b76f8113c130c449cece5ec34e6f8ad1caa42e8612b89fff3d62730b2d15a37509d37193c2b6c5236d
693b8809b9e6a94a976270afb7c07074031b039bccf116235ef9a7be156c5da8ce373af246fdf705ab5fe79448277d6d76ccc40dc51207fb056d118e53144ddc
1bacb53f9fefd5028cf584b8ca2c3c2d9786c975a1f476b1968f9e6fd5c1f29aa954de466375935e8675a01b2db95be72daea10cff7a5d917a6b041da60660cd
382530033c29775edc8d3bf726b57cc3f5280d48e6847cf5befc2f9350481f5fc3c21c8c1acc6e11ed857e222a29377b47c987c9e6e3926f41c29b0f8d76a09b
edcc8cada522b8e7886f31423673b0a9706b807646b803712bf972e293471a5d643d62e21a2bd240fe821ef072e47d377902063cdcac83bfca4d11d81786da33
46263147ec5e7be0b585b96681e0ca9bc766fef30e290f8c671021fa01074698855c41250372e37c343304a306b1a8ee345fb6565c285f0767567b4935229b3a
8cee9eb4d3608d87706b807646b803710dd6d18fe0bad14b8e2434afa7df2f7fa4d6d6c62f3b8387343304a306b1a8ee345fb6565c285f0767567b4935229b3a
f00453ddc370a520239bdbe658d21d004d8dedc8a85f068f4d888735ec16026fcebbaeba8aa1a443152c0d0be13af35d343304a306b1a8eea51579969182cf2e
55f704278dd54997239bdbe658d21d0014fec6183a63177ff00249e75316084d27c461e69ed31da535c792664f9c8dc6d2bbd7e847d638e106ca5c9d845745cf
a5257eba54077ab5021166ac3753b7b8ed857e222a29377b47c987c9e6e3926f9bdd75024e66c2217fc450ff3e877bf822a6af71bb3a3a229abb40a2fb419998
4b6085f2012636678ee5eab1ce21437bb001bba7c935540ced857e222a29377b47c987c9e6e3926f9bdd75024e66c2217fc450ff3e877bf8155bd7c82454d8cc
55f704278dd54997c12e63f53fc8b6c731a25524256a34c241ac0557663c109fdc604def672c9bdf3344a4a3825ec3e08f26dd77f7410485c27a0fe47ba19b0a
4651b4c215cbe2b1c23cdff2c91ac4502daea10cff7a5d91d945b5b24ce6d5a1559e8b7e85c7881c73b13e7c349cd99e570bd4876f376c9b600398ff79f5ab71
8767f397bff4c3a731bbfa71d5efb6fe825b843a3aa9ddcd2daea10cff7a5d91d945b5b24ce6d5a1559e8b7e85c7881c73b13e7c349cd99e95e1cf538e88c327
f1f8b157f1f1c959706b807646b80371917d084a6241cd368fd073021f784735984478e20f1f6562303d7240d8c3139d392a7df6f73d45613d527ac2613d630f
48f3f97bbe41eb326c466890e08648ddc4e2c99e308912bb263842fa74a5efe84c49b18e65b20125031b039bccf116235ef9a7be156c5da86c6c715472c72b7a
69993507172a086463775a12481601cc9e58694d79317e204dd1240da81725ec99fe5bd930a484ff651394558365c34c0a6027075e28c69033bffc6ddcff5b58
66f0f44e0cc2f1e9e71f71e1875841713da1e948a9b702a698a090f2b116bb9357d2755d915add1954c0dd1f2debfc8cd5bb8a71a9310f3e83de41f526276938
01bbba4488482a7726b975abe1d7cf1fdd0682ee57110acc742300cb23b889a1e5e7fade4086c0d1da565ab2036d72473ec67d4c73bca363ac8adbaea3b43a2c
32cd76a2a36328a9b598a13eab1a969bae525931e48e314093e3710dbc919cf1b369b01d3f4c432f36fb420f5a067a1e343304a306b1a8eea51579969182cf2e
aff8e1b0db961526706b807646b803714bb2f6a8ad31785abcdddd7fb44162f314298b253ba608d4a27fba5e531cba4c60a188d940e604c1ecf22f43cd602b91
44286f328a01b55967d2eff95da56274fe821ef072e47d377902063cdcac83bf548220604fce4ca2c3b7e33c906c6a162231c9953b9147f35aa45c0896a9703a
4b6085f2012636675a0aa31c52cddba976617f42cd5d956b3da1e948a9b702a698a090f2b116bb9357d2755d915add1954c0dd1f2debfc8c39a743487a5a3f9e
f277d2c568d51518706b807646b8037117ab39475244c5f9fa58d48d8818ec05f05bf80df204667fc58f303f7234a5893ec67d4c73bca363ac8adbaea3b43a2c
01ac7c7e7f0544ca706b807646b8037117ab39475244c5f9c2092e30a6b9a53af05bf80df204667fc58f303f7234a5893ec67d4c73bca363ac8adbaea3b43a2c
38372e23d32455b6706b807646b8037117ab39475244c5f95eaca0e97bc13bcb170a300e4704c7d13b79d1cd0e073c323ec67d4c73bca363ac8adbaea3b43a2c
48d387f4c4bd016761e7d90d036bba9382a234638ab3128cc992a5e80088e0012c1937ec2968a3ee100ca266f04103c73fb424764bb5fc113983e870079d0fe1
54025f075f081673af8e9c6d112bd0f2234ea322e385349c8aea5c692630caffdce0695a93054f6a981d954b39000616343304a306b1a8eea51579969182cf2e
9236c3e3a547e480b33b37268c1ea4b0f5966be7cc3c9150061d14f0501c673edc5fc63d867238bd4b74f4e7a77ec49e89c21ae0079bf85245483fbd0852878b
01bbba4488482a7709c4739f84a8c1c0b862a8bfcac75f59749d13634498f34bc9322890ded6647bb598a13eab1a969bf387578f62d5e1286b5a52879c3fa71e
5404d106ef9a9005ed857e222a29377b47c987c9e6e3926f9bdd75024e66c2217fc450ff3e877bf822a6af71bb3a3a223de27a99cb6bc70b10b43af8dccadd49
66c48e9bdceb435b706b807646b803710aacf8f49e60a5df2e6cce3c7df05cba71c0ea6f6f077a99949e0297405d1edc2daea10cff7a5d917a6b041da60660cd
7f6438286e4c656a706b807646b80371038409570993064c66453e5ce2b99192a615d78ccbdd76807662f9e929a451ee8318958aa75d4556dd0a70f33e2447ea
4e2689494256295447158635b18b66592daea10cff7a5d91d945b5b24ce6d5a1559e8b7e85c7881c73b13e7c349cd99e570bd4876f376c9b600398ff79f5ab71
4b6085f2012636675a0aa31c52cddba976617f42cd5d956b3da1e948a9b702a698a090f2b116bb9357d2755d915add1954c0dd1f2debfc8c39a743487a5a3f9e
01bbba4488482a77e0f494962bc21b5f97b09cb5db3e36cece5ec34e6f8ad1cad8d807b0ffebb839f7d6a0e0390456cd51fd6f6287df6fb3d7613a227e5601d6
6d35d8485846d699031b039bccf116235ef9a7be156c5da8ce373af246fdf705ab5fe79448277d6d76ccc40dc51207fb912c3730bf3a2f4aeb262d7b1b6e40e0
01bbba4488482a7727920222bf9105df1cdd42ef1b300885e49eed61822d5a742a0eb162ae8d3b98da565ab2036d72473ec67d4c73bca363ac8adbaea3b43a2c
32cd76a2a36328a9b598a13eab1a969bae525931e48e3140d3a0e46e70480b77dce2cf56d7fdbde06d3424e99a11ff68131f59ed507ae0b38b88925d1dd22b37
b5f1c17ee7956303392a7df6f73d45613f3aeb74ecaf0640b320cd167d17e04e79d1e914716968b5d99b3cdbe3d0228b5d2e4e94785ab0576b04903b2b2667cc
14d76dc64320e80050c20cf9335eebfb706b807646b80371e2cc1aca0a2ab3856a51c50a140b7622ad74a44220c4aff83ec67d4c73bca363ac8adbaea3b43a2c
0cb7a4749be82f3a706b807646b803710aacf8f49e60a5dff43cecea7776bdc63379e9804c33a97d343304a306b1a8ee345fb6565c285f0767567b4935229b3a
4e49c48dc1eef3ee706b807646b80371cf0c1aaa6be64e1756bfede5d11cc7ca2daea10cff7a5d91d945b5b24ce6d5a1559e8b7e85c7881c99b505a9958897b3
4fa374ad4eb78cff706b807646b80371fd87a010b4587fe65fa11637e737cac9709a6141207d042e343304a306b1a8ee345fb6565c285f0767567b4935229b3a
77ff607e519758d3706b807646b8037168afaec1e115016e145adeed11807cf563ccd771dea2fa78fe821ef072e47d377902063cdcac83bfca4d11d81786da33
01bbba4488482a77ba057fd7654376a7b33b37268c1ea4b026ea1043ad4d4b85749d13634498f34bc9322890ded6647bb598a13eab1a969b43f10d66d18edd96
5e910c4ef9026e3c4a72b03df15bc2b8f6c57157062f5a993da1e948a9b702a698a090f2b116bb9357d2755d915add1954c0dd1f2debfc8c39a743487a5a3f9e
e2a940f3b8cefa37343304a306b1a8ee345fb6565c285f07526e51cc856765cf1e6f66cd8e436b7a673492544bab6ba9463114c12e14f3f77824f0025a6b3969
48d387f4c4bd0167908295b3613f26e6a590e707fc7f6b2e749d13634498f34bc9322890ded6647b83a04c3e91542a0909feda96da5b330b15c520e89e4bcc3b
54580c7f3caf86b9e73070a45f1d549c3ec67d4c73bca363b6508643445d4fefc87cc0c97ea9f4a212e40fe3c7cdff735d45da6ecf8cdc388bfc7637a766eca9
2d1b5ee43d439f18706b807646b80371e2cc1aca0a2ab38521b67313122006f37c6fe782a45fcc68031b039bccf116235ef9a7be156c5da86c6c715472c72b7a
01bbba4488482a77b585b96681e0ca9bcb3a73884c4d3cc93177d5382cd4c217ce5ec34e6f8ad1cac86d4c551e9595c6a249d16ae661d58d1ba1b13622ed5e31
981d954b39000616343304a306b1a8ee345fb6565c285f07526e51cc856765cf1e6f66cd8e436b7a673492544bab6ba9463114c12e14f3f77824f0025a6b3969
515349a5ed5842004cc90ac87e2c6434cb3a73884c4d3cc9c8729fc0f35453a057e2c5aa80851370392a7df6f73d45613f3aeb74ecaf06401f9d52a72bcc2648
2cdaa0f058c8df7c0f1aaa9eaf8810339f5e3aff1bc1bdde4bb2f6a8ad31785a7f805dfc06e41528c93d2d23d7cdcf9e4b85ffe67a251b80043712e225fe0bcd
d2ea930141ad96c5fe821ef072e47d377902063cdcac83bf548220604fce4ca2c3b7e33c906c6a162231c9953b9147f32f78ed54d975dd6acfcc1ca340be70c9
bf5139cd80a3961a7eca681b3ee7c6aa706b807646b80371d80a6d05a8cb40b63a1e65fcf304ae23a9e8049dc1e1ff883ec67d4c73bca363ac8adbaea3b43a2c
2a76c18f665e8c27599bf13f0371d5b4b2f99f1a22d0fadc44da701f9f2d1e68031b039bccf116235ef9a7be156c5da8ce373af246fdf705445c3cccd865444b
43d264ccf01e31db7bf13fa6dfe02538ed90d4baaae23fdb6414ffcc5181a075c8991d489968b5e5d903c073beaf16f3cc03d7faa4a34131e50e25ebf7caa8cf
03b535798f13a1dd644126c9831a96bd3da1e948a9b702a698a090f2b116bb9357d2755d915add1954c0dd1f2debfc8cd5bb8a71a9310f3e83de41f526276938
43d264ccf01e31db7cc522c4c3740cf5ed90d4baaae23fdb2a446706bc8f950bed90d4baaae23fdb931364eb4fcb21dc2189e69b2940bbd2ce9cad6ea000940d
c612182fe29e690d392a7df6f73d45613f3aeb74ecaf0640b320cd167d17e04e79d1e914716968b5d99b3cdbe3d0228b5d2e4e94785ab0576b04903b2b2667cc
30b37130a2c56b6a706b807646b803712f2a8fb0aa9486d913bef5847934e39728a2138e2f07806f6af9d5413214ba985911b2e9db277617789dfe9e3750721c
f448aa8b445158d3c55c8187f39b70be392a7df6f73d45613f3aeb74ecaf0640b320cd167d17e04e79d1e914716968b5d99b3cdbe3d0228bff42fba8c1a7c8a7
4b6085f2012636675a0aa31c52cddba976617f42cd5d956b3da1e948a9b702a698a090f2b116bb9357d2755d915add1954c0dd1f2debfc8c39a743487a5a3f9e
0c5d1b11bf971f7b9f50c449b546348c828bd0aaae749c5178b54ce720b1001e894e2a87501b2eeb0481aad4e0d5c0e62bad6b3edf8871629946a9482e018b7a
b5f1c17ee7956303392a7df6f73d45613f3aeb74ecaf0640b320cd167d17e04e79d1e914716968b5d99b3cdbe3d0228b5d2e4e94785ab0576b04903b2b2667cc
c7db99103ec73098706b807646b8037113bef5847934e3975e00e5f426093871539a03690f275dad8e9fb5eb0017433cd2bbd7e847d638e106ca5c9d845745cf
a5257eba54077ab5021166ac3753b7b8ed857e222a29377b47c987c9e6e3926f9bdd75024e66c2217fc450ff3e877bf822a6af71bb3a3a229abb40a2fb419998
4b6085f2012636675a0aa31c52cddba976617f42cd5d956b3da1e948a9b702a698a090f2b116bb9357d2755d915add1954c0dd1f2debfc8c39a743487a5a3f9e
cb255c3e5c32daac706b807646b8037113bef5847934e397637413ffa3c33d9a539a03690f275dad0a2ee89976759faceb4a21a359b6b81c96170496c2fbf782
a1be24f585a042c1706b807646b8037113bef5847934e397a6631f5bf575b1c909bb4b547cb330cb710f626c2faf14a6392a7df6f73d45613d527ac2613d630f
a07425d03398062c706b807646b8037113bef5847934e39730fa00c6d0632d88395d23c35cee63eabff98c96795f4654eb4a21a359b6b81c96170496c2fbf782
5b666abd608fabcf706b807646b80371b8adb2095f04744fb5ad3d28a58e9fe409bb4b547cb330cb710f626c2faf14a6392a7df6f73d45613d527ac2613d630f
0c5d1b11bf971f7b0fa4ea595ab98ca031b0359992f7007628f646748c8cf2e07208a85e1aefd30aec9629e94260c2033da1e948a9b702a67ba43558043aebbb
d50b367b164f9bcf88ebb1cf8bb8b55e7147b91b213e054c5d55285ac1619d62131f59ed507ae0b33eb557405b78d11de71f71e187584171b6a081e9a38d0cc5
f7c56353ce9a3233cc0121b5e20e2076061625d1b9c468cd0a7c05860f32cd50e5ca422b938479a0aefbe17429ecdac20504375f44ec1a71b3e3766cb69de01b
67138a307a6c221b85ca69fda8cf338afe821ef072e47d377902063cdcac83bf548220604fce4ca2c3b7e33c906c6a162231c9953b9147f35aa45c0896a9703a
cdaa385411811e27bfd81d659a09e4b32637e9cac2aa5ceafd49a287c76beca9cf3db11be0503885fe821ef072e47d377902063cdcac83bfca4d11d81786da33
8e1bb7ece036b354bf230db17611f82f757523c47e0cc6733d971aa9df5f52a6c0f0908f5c2ae251726d9a7f6b37359c8318958aa75d4556dd0a70f33e2447ea
4e2689494256295447158635b18b66592daea10cff7a5d91d945b5b24ce6d5a1559e8b7e85c7881c73b13e7c349cd99e570bd4876f376c9b600398ff79f5ab71