Version 4
SHEET 1 880 680
WIRE 368 144 256 144
WIRE 144 176 112 176
WIRE 112 240 112 176
FLAG 112 240 0
FLAG 368 144 my_pwm
SYMBOL PWM_Circuit_2 192 160 R0
WINDOW 39 160 78 Bottom 2
SYMATTR InstName X1
SYMATTR SpiceLine DutyCycle=50 PWM_V=3.3 PWM_f=50k
