Version 4
SHEET 1 880 680
WIRE 240 144 240 128
WIRE 240 144 80 144
SYMBOL PWM_Circuit 32 144 R0
SYMATTR InstName X1
TEXT -18 174 Left 2 !.tran .1
