Version 4
SHEET 1 880 680
WIRE -320 -64 -416 -64
WIRE -320 96 -416 96
WIRE -320 256 -416 256
FLAG -320 -64 my_pwm1
FLAG -320 96 my_pwm2
FLAG -320 256 my_pwm3
SYMBOL PWM_Circuit -464 -64 R0
WINDOW 39 37 62 Bottom 2
SYMATTR InstName X1
SYMATTR SpiceLine DutyCycle=20 PWM_V=3.3 PWM_f=50k
SYMBOL PWM_Circuit -464 96 R0
WINDOW 39 -25 67 Bottom 2
SYMATTR InstName X2
SYMATTR SpiceLine DutyCycle={DutyCycle2} PWM_V=3.3 PWM_f=50k
SYMBOL PWM_Circuit -464 256 R0
WINDOW 39 -84 64 Bottom 2
SYMATTR InstName X3
SYMATTR SpiceLine DutyCycle={DutyCycle3} PWM_V=PWM3_V PWM_f=PWM3_f
TEXT -170 -178 Left 2 !.tran 0.0001
TEXT -144 160 Left 2 !.param DutyCycle2=20
TEXT -144 288 Left 2 !.param DutyCycle3=75
TEXT -512 -272 Left 5 ;PWM Signal Generator - Example Usage
TEXT -512 -216 Left 3 ;J.Kincell June 2021\nCurrentSauce.co.uk
TEXT -144 -72 Left 2 ;Example 1. All parameters are set within.\ni.e. Right Click component, add the PARAMS as shown here.\n(Tick the check box so it apprears in sch)
TEXT -144 64 Left 2 ;Example 2. Some parameters are set within.\nThe duty cycle is set via an 'external' .PARAM placed within the schematic.\nAllows multiple instantiations of different PWM sources
TEXT -144 320 Left 2 !.param PWM3_V=5
TEXT -144 352 Left 2 !.param PWM3_f=25k
TEXT -144 248 Left 2 ;Example 3. All parameters set by external .PARAM statement
