.model LXML-PWC1-VFBin_C D(Is=9.9054E-16 Rs=0.3672 N=3.2997 Iave=350m mfg=Lumileds type=LED)
.model LXML-PWC1-VFBin_D D(Is=1.5264E-11 Rs=0.4785 N=4.8316 Iave=350m mfg=Lumileds type=LED)
.model LXML-PWC1-VFBin_E D(Is=1.2192E-08 Rs=0.6093 N=7.0727 Iave=350m mfg=Lumileds type=LED)
.model LXML-PWC1-VFBin_F D(Is=7.7010E-07 Rs=0.7860 N=10.1428 Iave=350m mfg=Lumileds type=LED)
.model LXML-PWC1-VFBin_G D(Is=1.6973E-06 Rs=0.7700 N=11.2454 Iave=350m mfg=Lumileds type=LED)